  Page 1                                    Tue Sep  2 07:13:55 2025

  ******************************************************************
  *                           E P A N E T                          *
  *                   Hydraulic and Water Quality                  *
  *                   Analysis for Pipe Networks                   *
  *                         Version 2.2                            *
  ******************************************************************
  
  Analysis begun Tue Sep  2 07:13:55 2025

  Analysis ended Tue Sep  2 07:13:55 2025
