  Page 1                                    Mon Jun 02 19:58:07 2025

  ******************************************************************
  *                           E P A N E T                          *
  *                   Hydraulic and Water Quality                  *
  *                   Analysis for Pipe Networks                   *
  *                         Version 2.2                            *
  ******************************************************************
  
  Analysis begun Mon Jun 02 19:58:07 2025

  Analysis ended Mon Jun 02 19:58:07 2025
